
 OpenBabel04122007303D

 31 33  0  0  0  0  0  0  0  0999 V2000
   -0.5079    0.9478    1.4701 O   0  0  0  0  0  0  0  0  0  0  0  0
   -0.2911    0.6065    0.3150 C   0  0  0  0  0  0  0  0  0  0  0  0
    0.5290   -0.4480   -0.0488 N   0  0  0  0  0  0  0  0  0  0  0  0
   -0.8238    1.2160   -0.8101 N   0  0  0  0  0  0  0  0  0  0  0  0
    1.3127   -1.2393    0.8178 C   0  0  0  0  0  0  0  0  0  0  0  0
   -1.7795    2.2517   -0.8350 C   0  0  0  0  0  0  0  0  0  0  0  0
    1.8667   -2.4486    0.3442 C   0  0  0  0  0  0  0  0  0  0  0  0
    1.6330   -0.9078    2.1348 C   0  0  0  0  0  0  0  0  0  0  0  0
   -1.9006    2.9931   -2.0170 C   0  0  0  0  0  0  0  0  0  0  0  0
   -2.6285    2.5397    0.2353 C   0  0  0  0  0  0  0  0  0  0  0  0
    2.6615   -3.2077    1.2063 C   0  0  0  0  0  0  0  0  0  0  0  0
    1.8180   -3.1617   -0.8929 C   0  0  0  0  0  0  0  0  0  0  0  0
    2.4106   -1.6526    2.9631 N   0  0  0  0  0  0  0  0  0  0  0  0
   -2.8436    4.0193   -2.1187 C   0  0  0  0  0  0  0  0  0  0  0  0
   -3.5718    3.5666    0.1332 C   0  0  0  0  0  0  0  0  0  0  0  0
    3.0710   -4.3268    0.5178 N   0  0  0  0  0  0  0  0  0  0  0  0
    2.9291   -2.8123    2.5095 C   0  0  0  0  0  0  0  0  0  0  0  0
    2.5672   -4.3078   -0.7549 C   0  0  0  0  0  0  0  0  0  0  0  0
   -3.6784    4.3070   -1.0419 C   0  0  0  0  0  0  0  0  0  0  0  0
    0.4783   -0.7611   -1.0048 H   0  0  0  0  0  0  0  0  0  0  0  0
   -0.3947    0.9869   -1.6925 H   0  0  0  0  0  0  0  0  0  0  0  0
    1.2779    0.0101    2.5941 H   0  0  0  0  0  0  0  0  0  0  0  0
   -1.2593    2.7907   -2.8702 H   0  0  0  0  0  0  0  0  0  0  0  0
   -2.5836    1.9744    1.1619 H   0  0  0  0  0  0  0  0  0  0  0  0
    1.2877   -2.8732   -1.7902 H   0  0  0  0  0  0  0  0  0  0  0  0
   -2.9251    4.5945   -3.0372 H   0  0  0  0  0  0  0  0  0  0  0  0
   -4.2232    3.7841    0.9760 H   0  0  0  0  0  0  0  0  0  0  0  0
    3.6582   -5.0552    0.9017 H   0  0  0  0  0  0  0  0  0  0  0  0
    3.5406   -3.3815    3.1987 H   0  0  0  0  0  0  0  0  0  0  0  0
    2.7815   -5.1102   -1.4485 H   0  0  0  0  0  0  0  0  0  0  0  0
   -4.4118    5.1055   -1.1169 H   0  0  0  0  0  0  0  0  0  0  0  0
  1  2  2  0  0  0  0
  2  3  1  0  0  0  0
  2  4  1  0  0  0  0
  3  5  1  0  0  0  0
  3 20  1  0  0  0  0
  4  6  1  0  0  0  0
  4 21  1  0  0  0  0
  5  7  2  0  0  0  0
  5  8  1  0  0  0  0
  6  9  2  0  0  0  0
  6 10  1  0  0  0  0
  7 11  1  0  0  0  0
  7 12  1  0  0  0  0
  8 13  2  0  0  0  0
  8 22  1  0  0  0  0
  9 14  1  0  0  0  0
  9 23  1  0  0  0  0
 10 15  2  0  0  0  0
 10 24  1  0  0  0  0
 11 16  1  0  0  0  0
 11 17  2  0  0  0  0
 12 18  2  0  0  0  0
 12 25  1  0  0  0  0
 13 17  1  0  0  0  0
 14 19  2  0  0  0  0
 14 26  1  0  0  0  0
 15 19  1  0  0  0  0
 15 27  1  0  0  0  0
 16 18  1  0  0  0  0
 16 28  1  0  0  0  0
 17 29  1  0  0  0  0
 18 30  1  0  0  0  0
 19 31  1  0  0  0  0
M  END
>  <ID>
7

>  <Stereo Isomer>
1

>  <Energy>
-11.816

>  <Error>


$$$$
