
 OpenBabel04122007303D

 35 36  0  0  0  0  0  0  0  0999 V2000
    1.3701    1.8719   -0.2406 O   0  0  0  0  0  0  0  0  0  0  0  0
    1.3591    0.7033    0.1223 C   0  0  0  0  0  0  0  0  0  0  0  0
    0.2142   -0.0685    0.2466 N   0  0  0  0  0  0  0  0  0  0  0  0
    2.4802   -0.0356    0.4671 N   0  0  0  0  0  0  0  0  0  0  0  0
   -1.1158    0.3756    0.0791 C   0  0  0  0  0  0  0  0  0  0  0  0
    3.8244    0.3750    0.3595 C   0  0  0  0  0  0  0  0  0  0  0  0
   -1.5094    1.7061    0.0830 C   0  0  0  0  0  0  0  0  0  0  0  0
   -2.1195   -0.5954   -0.0635 C   0  0  0  0  0  0  0  0  0  0  0  0
    4.2476    1.4048   -0.4830 C   0  0  0  0  0  0  0  0  0  0  0  0
    4.7779   -0.3246    1.1098 C   0  0  0  0  0  0  0  0  0  0  0  0
   -2.7939    2.1049   -0.0476 N   0  0  0  0  0  0  0  0  0  0  0  0
   -3.4740   -0.2539   -0.2111 C   0  0  0  0  0  0  0  0  0  0  0  0
    5.6018    1.7440   -0.5600 C   0  0  0  0  0  0  0  0  0  0  0  0
    6.1312    0.0147    1.0325 C   0  0  0  0  0  0  0  0  0  0  0  0
   -3.7223    1.1250   -0.1917 C   0  0  0  0  0  0  0  0  0  0  0  0
   -4.4744   -1.2085   -0.3591 N   0  0  0  0  0  0  0  0  0  0  0  0
    6.5427    1.0509    0.1981 C   0  0  0  0  0  0  0  0  0  0  0  0
   -4.1662   -2.6303   -0.4303 C   0  0  0  0  0  0  0  0  0  0  0  0
   -5.8687   -0.8062   -0.5065 C   0  0  0  0  0  0  0  0  0  0  0  0
    0.3469   -1.0618    0.3516 H   0  0  0  0  0  0  0  0  0  0  0  0
    2.3182   -0.8959    0.9661 H   0  0  0  0  0  0  0  0  0  0  0  0
   -0.8065    2.5230    0.2078 H   0  0  0  0  0  0  0  0  0  0  0  0
   -1.8273   -1.6399   -0.0631 H   0  0  0  0  0  0  0  0  0  0  0  0
    3.5441    1.9578   -1.0990 H   0  0  0  0  0  0  0  0  0  0  0  0
    4.4826   -1.1346    1.7708 H   0  0  0  0  0  0  0  0  0  0  0  0
    5.9174    2.5516   -1.2157 H   0  0  0  0  0  0  0  0  0  0  0  0
    6.8632   -0.5283    1.6245 H   0  0  0  0  0  0  0  0  0  0  0  0
   -4.7286    1.5186   -0.2968 H   0  0  0  0  0  0  0  0  0  0  0  0
    7.5943    1.3187    0.1369 H   0  0  0  0  0  0  0  0  0  0  0  0
   -5.0672   -3.2392   -0.5618 H   0  0  0  0  0  0  0  0  0  0  0  0
   -3.5101   -2.8445   -1.2811 H   0  0  0  0  0  0  0  0  0  0  0  0
   -3.6857   -2.9714    0.4933 H   0  0  0  0  0  0  0  0  0  0  0  0
   -6.2021   -0.2281    0.3623 H   0  0  0  0  0  0  0  0  0  0  0  0
   -6.0069   -0.2093   -1.4147 H   0  0  0  0  0  0  0  0  0  0  0  0
   -6.5376   -1.6700   -0.5858 H   0  0  0  0  0  0  0  0  0  0  0  0
  1  2  2  0  0  0  0
  2  3  1  0  0  0  0
  2  4  1  0  0  0  0
  3  5  1  0  0  0  0
  3 20  1  0  0  0  0
  4  6  1  0  0  0  0
  4 21  1  0  0  0  0
  5  7  2  0  0  0  0
  5  8  1  0  0  0  0
  6  9  2  0  0  0  0
  6 10  1  0  0  0  0
  7 11  1  0  0  0  0
  7 22  1  0  0  0  0
  8 12  2  0  0  0  0
  8 23  1  0  0  0  0
  9 13  1  0  0  0  0
  9 24  1  0  0  0  0
 10 14  2  0  0  0  0
 10 25  1  0  0  0  0
 11 15  2  0  0  0  0
 12 16  1  0  0  0  0
 12 15  1  0  0  0  0
 13 17  2  0  0  0  0
 13 26  1  0  0  0  0
 14 17  1  0  0  0  0
 14 27  1  0  0  0  0
 15 28  1  0  0  0  0
 16 18  1  0  0  0  0
 16 19  1  0  0  0  0
 17 29  1  0  0  0  0
 18 30  1  0  0  0  0
 18 31  1  0  0  0  0
 18 32  1  0  0  0  0
 19 33  1  0  0  0  0
 19 34  1  0  0  0  0
 19 35  1  0  0  0  0
M  END
>  <ID>
4

>  <Stereo Isomer>
1

>  <Energy>
9.6652

>  <Error>


$$$$
