
 OpenBabel04122007303D

 30 32  0  0  0  0  0  0  0  0999 V2000
   -0.4692   -0.5433   -1.6120 O   0  0  0  0  0  0  0  0  0  0  0  0
   -0.1642    0.0906   -0.6100 C   0  0  0  0  0  0  0  0  0  0  0  0
    0.0195   -0.4741    0.6363 N   0  0  0  0  0  0  0  0  0  0  0  0
    0.0367    1.4600   -0.5592 N   0  0  0  0  0  0  0  0  0  0  0  0
   -0.1329   -1.8294    0.9853 C   0  0  0  0  0  0  0  0  0  0  0  0
   -0.0008    2.3684   -1.6362 C   0  0  0  0  0  0  0  0  0  0  0  0
    0.1691   -2.2068    2.3031 C   0  0  0  0  0  0  0  0  0  0  0  0
   -0.5652   -2.8662    0.1651 C   0  0  0  0  0  0  0  0  0  0  0  0
    0.0750    1.9842   -2.9762 C   0  0  0  0  0  0  0  0  0  0  0  0
   -0.0844    3.7320   -1.3258 C   0  0  0  0  0  0  0  0  0  0  0  0
    0.6126   -1.4291    3.3567 N   0  0  0  0  0  0  0  0  0  0  0  0
    0.0313   -3.5312    2.6954 C   0  0  0  0  0  0  0  0  0  0  0  0
   -0.7003   -4.1660    0.5554 N   0  0  0  0  0  0  0  0  0  0  0  0
    0.0510    2.9462   -3.9910 C   0  0  0  0  0  0  0  0  0  0  0  0
   -0.1083    4.6931   -2.3399 C   0  0  0  0  0  0  0  0  0  0  0  0
    0.7436   -2.2624    4.3643 C   0  0  0  0  0  0  0  0  0  0  0  0
    0.4051   -3.5407    4.0136 N   0  0  0  0  0  0  0  0  0  0  0  0
   -0.4018   -4.5168    1.8273 C   0  0  0  0  0  0  0  0  0  0  0  0
   -0.0421    4.2992   -3.6736 C   0  0  0  0  0  0  0  0  0  0  0  0
    0.3483    0.1078    1.3965 H   0  0  0  0  0  0  0  0  0  0  0  0
    0.1407    1.8635    0.3585 H   0  0  0  0  0  0  0  0  0  0  0  0
   -0.8345   -2.6988   -0.8735 H   0  0  0  0  0  0  0  0  0  0  0  0
    0.1625    0.9407   -3.2635 H   0  0  0  0  0  0  0  0  0  0  0  0
   -0.1397    4.0654   -0.2931 H   0  0  0  0  0  0  0  0  0  0  0  0
    0.1071    2.6324   -5.0303 H   0  0  0  0  0  0  0  0  0  0  0  0
   -0.1797    5.7479   -2.0881 H   0  0  0  0  0  0  0  0  0  0  0  0
    1.0756   -2.0047    5.3618 H   0  0  0  0  0  0  0  0  0  0  0  0
    0.4275   -4.3469    4.6219 H   0  0  0  0  0  0  0  0  0  0  0  0
   -0.5213   -5.5586    2.0962 H   0  0  0  0  0  0  0  0  0  0  0  0
   -0.0615    5.0436   -4.4652 H   0  0  0  0  0  0  0  0  0  0  0  0
  1  2  2  0  0  0  0
  2  3  1  0  0  0  0
  2  4  1  0  0  0  0
  3  5  1  0  0  0  0
  3 20  1  0  0  0  0
  4  6  1  0  0  0  0
  4 21  1  0  0  0  0
  5  7  2  0  0  0  0
  5  8  1  0  0  0  0
  6  9  2  0  0  0  0
  6 10  1  0  0  0  0
  7 11  1  0  0  0  0
  7 12  1  0  0  0  0
  8 13  2  0  0  0  0
  8 22  1  0  0  0  0
  9 14  1  0  0  0  0
  9 23  1  0  0  0  0
 10 15  2  0  0  0  0
 10 24  1  0  0  0  0
 11 16  2  0  0  0  0
 12 17  1  0  0  0  0
 12 18  2  0  0  0  0
 13 18  1  0  0  0  0
 14 19  2  0  0  0  0
 14 25  1  0  0  0  0
 15 19  1  0  0  0  0
 15 26  1  0  0  0  0
 16 17  1  0  0  0  0
 16 27  1  0  0  0  0
 17 28  1  0  0  0  0
 18 29  1  0  0  0  0
 19 30  1  0  0  0  0
M  END
>  <ID>
10

>  <Stereo Isomer>
1

>  <Energy>
-23.086

>  <Error>


$$$$
