
 OpenBabel04122007303D

 33 35  0  0  0  0  0  0  0  0999 V2000
    1.0510    0.3881   -0.1931 O   0  0  0  0  0  0  0  0  0  0  0  0
    0.0276    0.4804    0.4711 C   0  0  0  0  0  0  0  0  0  0  0  0
   -0.6926   -0.5878    0.9765 N   0  0  0  0  0  0  0  0  0  0  0  0
   -0.5707    1.6749    0.8467 N   0  0  0  0  0  0  0  0  0  0  0  0
   -0.5740   -1.9355    0.6686 C   0  0  0  0  0  0  0  0  0  0  0  0
   -0.0638    2.9722    0.6353 C   0  0  0  0  0  0  0  0  0  0  0  0
   -0.1436   -2.5272   -0.5647 N   0  0  0  0  0  0  0  0  0  0  0  0
   -0.9281   -2.7802    1.6774 C   0  0  0  0  0  0  0  0  0  0  0  0
   -0.9680    4.0399    0.6919 C   0  0  0  0  0  0  0  0  0  0  0  0
    1.2895    3.2396    0.4197 C   0  0  0  0  0  0  0  0  0  0  0  0
    0.0403   -3.9516   -0.6405 C   0  0  0  0  0  0  0  0  0  0  0  0
    0.0234   -1.8491   -1.7655 C   0  0  0  0  0  0  0  0  0  0  0  0
   -0.8168   -4.1472    1.5788 N   0  0  0  0  0  0  0  0  0  0  0  0
   -0.5266    5.3538    0.5150 C   0  0  0  0  0  0  0  0  0  0  0  0
    1.7306    4.5543    0.2427 C   0  0  0  0  0  0  0  0  0  0  0  0
    0.5222   -4.6229   -1.7512 N   0  0  0  0  0  0  0  0  0  0  0  0
   -0.3052   -4.7032    0.4317 C   0  0  0  0  0  0  0  0  0  0  0  0
    0.4430   -2.4233   -2.8978 C   0  0  0  0  0  0  0  0  0  0  0  0
    0.8233    5.6105    0.2885 C   0  0  0  0  0  0  0  0  0  0  0  0
    0.7128   -3.8720   -2.7892 C   0  0  0  0  0  0  0  0  0  0  0  0
   -1.1898   -0.3729    1.8270 H   0  0  0  0  0  0  0  0  0  0  0  0
   -1.5284    1.6124    1.1563 H   0  0  0  0  0  0  0  0  0  0  0  0
   -1.2751   -2.4468    2.6486 H   0  0  0  0  0  0  0  0  0  0  0  0
   -2.0264    3.8659    0.8646 H   0  0  0  0  0  0  0  0  0  0  0  0
    2.0263    2.4415    0.3922 H   0  0  0  0  0  0  0  0  0  0  0  0
   -0.2328   -0.7986   -1.7600 H   0  0  0  0  0  0  0  0  0  0  0  0
   -1.0434   -4.7432    2.3650 H   0  0  0  0  0  0  0  0  0  0  0  0
   -1.2363    6.1761    0.5528 H   0  0  0  0  0  0  0  0  0  0  0  0
    2.7862    4.7491    0.0706 H   0  0  0  0  0  0  0  0  0  0  0  0
   -0.2027   -5.7823    0.4350 H   0  0  0  0  0  0  0  0  0  0  0  0
    0.5741   -1.9071   -3.8354 H   0  0  0  0  0  0  0  0  0  0  0  0
    1.1697    6.6313    0.1494 H   0  0  0  0  0  0  0  0  0  0  0  0
    1.1043   -4.3392   -3.7079 H   0  0  0  0  0  0  0  0  0  0  0  0
  1  2  2  0  0  0  0
  2  3  1  0  0  0  0
  2  4  1  0  0  0  0
  3  5  1  0  0  0  0
  3 21  1  0  0  0  0
  4  6  1  0  0  0  0
  4 22  1  0  0  0  0
  5  7  1  0  0  0  0
  5  8  2  0  0  0  0
  6  9  2  0  0  0  0
  6 10  1  0  0  0  0
  7 11  1  0  0  0  0
  7 12  1  0  0  0  0
  8 13  1  0  0  0  0
  8 23  1  0  0  0  0
  9 14  1  0  0  0  0
  9 24  1  0  0  0  0
 10 15  2  0  0  0  0
 10 25  1  0  0  0  0
 11 16  1  0  0  0  0
 11 17  2  0  0  0  0
 12 18  2  0  0  0  0
 12 26  1  0  0  0  0
 13 17  1  0  0  0  0
 13 27  1  0  0  0  0
 14 19  2  0  0  0  0
 14 28  1  0  0  0  0
 15 19  1  0  0  0  0
 15 29  1  0  0  0  0
 16 20  2  0  0  0  0
 17 30  1  0  0  0  0
 18 20  1  0  0  0  0
 18 31  1  0  0  0  0
 19 32  1  0  0  0  0
 20 33  1  0  0  0  0
M  END
>  <ID>
12

>  <Stereo Isomer>
1

>  <Energy>
0.87245

>  <Error>


$$$$
