
 OpenBabel04122007303D

 30 32  0  0  0  0  0  0  0  0999 V2000
   -1.6990   -0.4275   -0.3912 O   0  0  0  0  0  0  0  0  0  0  0  0
   -0.5934   -0.1789    0.0704 C   0  0  0  0  0  0  0  0  0  0  0  0
    0.4297    0.4438   -0.6306 N   0  0  0  0  0  0  0  0  0  0  0  0
   -0.1857   -0.4770    1.3625 N   0  0  0  0  0  0  0  0  0  0  0  0
    0.3960    0.9699   -1.9037 C   0  0  0  0  0  0  0  0  0  0  0  0
   -0.9141   -1.2033    2.3272 C   0  0  0  0  0  0  0  0  0  0  0  0
    1.6195    1.4899   -2.4120 C   0  0  0  0  0  0  0  0  0  0  0  0
   -0.6876    1.0499   -2.7109 C   0  0  0  0  0  0  0  0  0  0  0  0
   -0.5311   -1.0650    3.6673 C   0  0  0  0  0  0  0  0  0  0  0  0
   -1.9563   -2.0755    2.0071 C   0  0  0  0  0  0  0  0  0  0  0  0
    1.5597    2.0169   -3.6799 N   0  0  0  0  0  0  0  0  0  0  0  0
    2.9286    1.6380   -2.0089 C   0  0  0  0  0  0  0  0  0  0  0  0
   -0.7188    1.5892   -3.9908 N   0  0  0  0  0  0  0  0  0  0  0  0
   -1.1942   -1.7738    4.6726 C   0  0  0  0  0  0  0  0  0  0  0  0
   -2.6195   -2.7844    3.0132 C   0  0  0  0  0  0  0  0  0  0  0  0
    2.7416    2.4988   -4.1215 N   0  0  0  0  0  0  0  0  0  0  0  0
    0.4038    2.0615   -4.4512 C   0  0  0  0  0  0  0  0  0  0  0  0
    3.5702    2.2634   -3.1000 C   0  0  0  0  0  0  0  0  0  0  0  0
   -2.2402   -2.6327    4.3450 C   0  0  0  0  0  0  0  0  0  0  0  0
    1.3250    0.4647   -0.1699 H   0  0  0  0  0  0  0  0  0  0  0  0
    0.6540   -0.0285    1.6921 H   0  0  0  0  0  0  0  0  0  0  0  0
   -1.6556    0.6799   -2.3839 H   0  0  0  0  0  0  0  0  0  0  0  0
    0.2792   -0.3992    3.9503 H   0  0  0  0  0  0  0  0  0  0  0  0
   -2.2704   -2.2302    0.9787 H   0  0  0  0  0  0  0  0  0  0  0  0
    3.3745    1.3429   -1.0707 H   0  0  0  0  0  0  0  0  0  0  0  0
   -0.8956   -1.6542    5.7108 H   0  0  0  0  0  0  0  0  0  0  0  0
   -3.4331   -3.4562    2.7511 H   0  0  0  0  0  0  0  0  0  0  0  0
    0.4627    2.5054   -5.4571 H   0  0  0  0  0  0  0  0  0  0  0  0
    4.6093    2.5564   -3.1903 H   0  0  0  0  0  0  0  0  0  0  0  0
   -2.7594   -3.1842    5.1244 H   0  0  0  0  0  0  0  0  0  0  0  0
  1  2  2  0  0  0  0
  2  3  1  0  0  0  0
  2  4  1  0  0  0  0
  3  5  1  0  0  0  0
  3 20  1  0  0  0  0
  4  6  1  0  0  0  0
  4 21  1  0  0  0  0
  5  7  1  0  0  0  0
  5  8  2  0  0  0  0
  6  9  2  0  0  0  0
  6 10  1  0  0  0  0
  7 11  1  0  0  0  0
  7 12  2  0  0  0  0
  8 13  1  0  0  0  0
  8 22  1  0  0  0  0
  9 14  1  0  0  0  0
  9 23  1  0  0  0  0
 10 15  2  0  0  0  0
 10 24  1  0  0  0  0
 11 16  1  0  0  0  0
 11 17  1  0  0  0  0
 12 18  1  0  0  0  0
 12 25  1  0  0  0  0
 13 17  2  0  0  0  0
 14 19  2  0  0  0  0
 14 26  1  0  0  0  0
 15 19  1  0  0  0  0
 15 27  1  0  0  0  0
 16 18  2  0  0  0  0
 17 28  1  0  0  0  0
 18 29  1  0  0  0  0
 19 30  1  0  0  0  0
M  END
>  <ID>
8

>  <Stereo Isomer>
1

>  <Energy>
21.803

>  <Error>


$$$$
