
 OpenBabel04122007303D

 38 40  0  0  0  0  0  0  0  0999 V2000
    0.6184    0.5983    1.9826 O   0  0  0  0  0  0  0  0  0  0  0  0
    0.4889    0.4862    0.7700 C   0  0  0  0  0  0  0  0  0  0  0  0
    1.2581   -0.3138   -0.0561 N   0  0  0  0  0  0  0  0  0  0  0  0
   -0.5537    1.2687   -0.0207 C   0  0  0  0  0  0  0  0  0  0  0  0
    2.3123   -1.1683    0.3323 C   0  0  0  0  0  0  0  0  0  0  0  0
   -1.6026    1.9716    0.8621 C   0  0  0  0  0  0  0  0  0  0  0  0
    3.0156   -1.8905   -0.6576 C   0  0  0  0  0  0  0  0  0  0  0  0
    2.7390   -1.3815    1.6436 C   0  0  0  0  0  0  0  0  0  0  0  0
   -2.3878    3.0228    0.0580 C   0  0  0  0  0  0  0  0  0  0  0  0
   -2.5774    0.9803    1.5248 C   0  0  0  0  0  0  0  0  0  0  0  0
    4.0549   -2.7369   -0.2643 C   0  0  0  0  0  0  0  0  0  0  0  0
    2.9332   -1.9882   -2.0810 C   0  0  0  0  0  0  0  0  0  0  0  0
    3.7515   -2.2083    2.0144 N   0  0  0  0  0  0  0  0  0  0  0  0
   -3.3685    2.4033   -0.9357 C   0  0  0  0  0  0  0  0  0  0  0  0
   -3.5737    0.3641    0.5433 C   0  0  0  0  0  0  0  0  0  0  0  0
    4.5730   -3.3163   -1.4000 N   0  0  0  0  0  0  0  0  0  0  0  0
    4.4204   -2.8939    1.0650 C   0  0  0  0  0  0  0  0  0  0  0  0
    3.9007   -2.8699   -2.5055 C   0  0  0  0  0  0  0  0  0  0  0  0
   -4.3220    1.4311   -0.2491 C   0  0  0  0  0  0  0  0  0  0  0  0
    1.0582   -0.2883   -1.0472 H   0  0  0  0  0  0  0  0  0  0  0  0
   -1.0302    0.5948   -0.7409 H   0  0  0  0  0  0  0  0  0  0  0  0
    0.0000    2.0197   -0.5990 H   0  0  0  0  0  0  0  0  0  0  0  0
   -1.0710    2.5037    1.6623 H   0  0  0  0  0  0  0  0  0  0  0  0
    2.2705   -0.8832    2.4865 H   0  0  0  0  0  0  0  0  0  0  0  0
   -1.6979    3.6894   -0.4727 H   0  0  0  0  0  0  0  0  0  0  0  0
   -2.9498    3.6543    0.7585 H   0  0  0  0  0  0  0  0  0  0  0  0
   -2.0318    0.1807    2.0377 H   0  0  0  0  0  0  0  0  0  0  0  0
   -3.1406    1.5138    2.3019 H   0  0  0  0  0  0  0  0  0  0  0  0
    2.2411   -1.4695   -2.7304 H   0  0  0  0  0  0  0  0  0  0  0  0
   -3.9457    3.1979   -1.4224 H   0  0  0  0  0  0  0  0  0  0  0  0
   -2.8191    1.8830   -1.7290 H   0  0  0  0  0  0  0  0  0  0  0  0
   -3.0525   -0.3089   -0.1471 H   0  0  0  0  0  0  0  0  0  0  0  0
   -4.2937   -0.2519    1.0943 H   0  0  0  0  0  0  0  0  0  0  0  0
    5.3396   -3.9759   -1.4107 H   0  0  0  0  0  0  0  0  0  0  0  0
    5.2213   -3.5426    1.3976 H   0  0  0  0  0  0  0  0  0  0  0  0
    4.1679   -3.2164   -3.4953 H   0  0  0  0  0  0  0  0  0  0  0  0
   -4.9824    1.9879    0.4272 H   0  0  0  0  0  0  0  0  0  0  0  0
   -4.9642    0.9528   -0.9972 H   0  0  0  0  0  0  0  0  0  0  0  0
  1  2  2  0  0  0  0
  2  3  1  0  0  0  0
  2  4  1  0  0  0  0
  3  5  1  0  0  0  0
  3 20  1  0  0  0  0
  4  6  1  0  0  0  0
  4 21  1  0  0  0  0
  4 22  1  0  0  0  0
  5  7  2  0  0  0  0
  5  8  1  0  0  0  0
  6  9  1  0  0  0  0
  6 10  1  0  0  0  0
  6 23  1  0  0  0  0
  7 11  1  0  0  0  0
  7 12  1  0  0  0  0
  8 13  2  0  0  0  0
  8 24  1  0  0  0  0
  9 14  1  0  0  0  0
  9 25  1  0  0  0  0
  9 26  1  0  0  0  0
 10 15  1  0  0  0  0
 10 27  1  0  0  0  0
 10 28  1  0  0  0  0
 11 16  1  0  0  0  0
 11 17  2  0  0  0  0
 12 18  2  0  0  0  0
 12 29  1  0  0  0  0
 13 17  1  0  0  0  0
 14 19  1  0  0  0  0
 14 30  1  0  0  0  0
 14 31  1  0  0  0  0
 15 19  1  0  0  0  0
 15 32  1  0  0  0  0
 15 33  1  0  0  0  0
 16 18  1  0  0  0  0
 16 34  1  0  0  0  0
 17 35  1  0  0  0  0
 18 36  1  0  0  0  0
 19 37  1  0  0  0  0
 19 38  1  0  0  0  0
M  END
>  <ID>
7

>  <Stereo Isomer>
1

>  <Energy>
22.364

>  <Error>


$$$$
