
 OpenBabel04122007303D

 39 41  0  0  0  0  0  0  0  0999 V2000
   -1.7124    1.9459   -0.0368 O   0  0  0  0  0  0  0  0  0  0  0  0
   -0.9916    1.0653   -0.4936 C   0  0  0  0  0  0  0  0  0  0  0  0
   -1.1693   -0.2942   -0.3168 N   0  0  0  0  0  0  0  0  0  0  0  0
    0.2311    1.4059   -1.3277 C   0  0  0  0  0  0  0  0  0  0  0  0
   -2.1950   -0.8984    0.4537 C   0  0  0  0  0  0  0  0  0  0  0  0
    1.3685    1.9652   -0.4596 C   0  0  0  0  0  0  0  0  0  0  0  0
   -2.6164   -2.2277    0.1659 C   0  0  0  0  0  0  0  0  0  0  0  0
   -2.7736   -0.2509    1.5449 C   0  0  0  0  0  0  0  0  0  0  0  0
    2.4531    2.5866   -1.3546 C   0  0  0  0  0  0  0  0  0  0  0  0
    1.9765    0.8814    0.4473 C   0  0  0  0  0  0  0  0  0  0  0  0
   -3.5855   -2.8363    0.9918 C   0  0  0  0  0  0  0  0  0  0  0  0
   -2.1469   -3.0084   -0.9174 C   0  0  0  0  0  0  0  0  0  0  0  0
   -3.7020   -0.8101    2.3496 N   0  0  0  0  0  0  0  0  0  0  0  0
    3.6303    3.1163   -0.5399 C   0  0  0  0  0  0  0  0  0  0  0  0
    3.1579    1.4133    1.2560 C   0  0  0  0  0  0  0  0  0  0  0  0
   -4.0409   -4.0937    0.7988 N   0  0  0  0  0  0  0  0  0  0  0  0
   -4.0721   -2.0773    2.0428 C   0  0  0  0  0  0  0  0  0  0  0  0
   -2.6161   -4.3025   -1.1225 C   0  0  0  0  0  0  0  0  0  0  0  0
    4.2218    2.0362    0.3590 C   0  0  0  0  0  0  0  0  0  0  0  0
   -3.5537   -4.7974   -0.2422 C   0  0  0  0  0  0  0  0  0  0  0  0
   -0.5272   -0.9156   -0.7883 H   0  0  0  0  0  0  0  0  0  0  0  0
   -0.0899    2.1538   -2.0636 H   0  0  0  0  0  0  0  0  0  0  0  0
    0.5705    0.5334   -1.8980 H   0  0  0  0  0  0  0  0  0  0  0  0
    0.9631    2.7576    0.1848 H   0  0  0  0  0  0  0  0  0  0  0  0
   -2.4894    0.7555    1.8384 H   0  0  0  0  0  0  0  0  0  0  0  0
    2.8175    1.8390   -2.0709 H   0  0  0  0  0  0  0  0  0  0  0  0
    2.0262    3.4078   -1.9428 H   0  0  0  0  0  0  0  0  0  0  0  0
    1.2206    0.4988    1.1425 H   0  0  0  0  0  0  0  0  0  0  0  0
    2.3096    0.0308   -0.1610 H   0  0  0  0  0  0  0  0  0  0  0  0
   -1.4257   -2.6152   -1.6270 H   0  0  0  0  0  0  0  0  0  0  0  0
    4.4041    3.4973   -1.2159 H   0  0  0  0  0  0  0  0  0  0  0  0
    3.2978    3.9621    0.0743 H   0  0  0  0  0  0  0  0  0  0  0  0
    3.6001    0.5985    1.8403 H   0  0  0  0  0  0  0  0  0  0  0  0
    2.8002    2.1626    1.9730 H   0  0  0  0  0  0  0  0  0  0  0  0
   -4.8221   -2.5016    2.7060 H   0  0  0  0  0  0  0  0  0  0  0  0
   -2.2627   -4.9045   -1.9523 H   0  0  0  0  0  0  0  0  0  0  0  0
    5.0197    2.4651    0.9755 H   0  0  0  0  0  0  0  0  0  0  0  0
    4.6803    1.2556   -0.2604 H   0  0  0  0  0  0  0  0  0  0  0  0
   -3.9562   -5.8004   -0.3533 H   0  0  0  0  0  0  0  0  0  0  0  0
  1  2  2  0  0  0  0
  2  3  1  0  0  0  0
  2  4  1  0  0  0  0
  3  5  1  0  0  0  0
  3 21  1  0  0  0  0
  4  6  1  0  0  0  0
  4 22  1  0  0  0  0
  4 23  1  0  0  0  0
  5  7  1  0  0  0  0
  5  8  2  0  0  0  0
  6  9  1  0  0  0  0
  6 10  1  0  0  0  0
  6 24  1  0  0  0  0
  7 11  1  0  0  0  0
  7 12  2  0  0  0  0
  8 13  1  0  0  0  0
  8 25  1  0  0  0  0
  9 14  1  0  0  0  0
  9 26  1  0  0  0  0
  9 27  1  0  0  0  0
 10 15  1  0  0  0  0
 10 28  1  0  0  0  0
 10 29  1  0  0  0  0
 11 16  2  0  0  0  0
 11 17  1  0  0  0  0
 12 18  1  0  0  0  0
 12 30  1  0  0  0  0
 13 17  2  0  0  0  0
 14 19  1  0  0  0  0
 14 31  1  0  0  0  0
 14 32  1  0  0  0  0
 15 19  1  0  0  0  0
 15 33  1  0  0  0  0
 15 34  1  0  0  0  0
 16 20  1  0  0  0  0
 17 35  1  0  0  0  0
 18 20  2  0  0  0  0
 18 36  1  0  0  0  0
 19 37  1  0  0  0  0
 19 38  1  0  0  0  0
 20 39  1  0  0  0  0
M  END
>  <ID>
6

>  <Stereo Isomer>
1

>  <Energy>
59.011

>  <Error>


$$$$
