
 OpenBabel04122007303D

 40 42  0  0  0  0  0  0  0  0999 V2000
    2.0930   -2.3408    0.8992 O   0  0  0  0  0  0  0  0  0  0  0  0
    1.2602   -1.6670    0.2864 C   0  0  0  0  0  0  0  0  0  0  0  0
    1.2072   -1.7752   -1.0736 N   0  0  0  0  0  0  0  0  0  0  0  0
    0.4033   -0.6480    1.0199 C   0  0  0  0  0  0  0  0  0  0  0  0
    0.2938   -1.2871   -1.9819 C   0  0  0  0  0  0  0  0  0  0  0  0
    0.8715    0.8003    0.7727 C   0  0  0  0  0  0  0  0  0  0  0  0
   -1.1275   -1.3160   -1.8563 N   0  0  0  0  0  0  0  0  0  0  0  0
    0.8212   -0.7469   -3.1123 C   0  0  0  0  0  0  0  0  0  0  0  0
    2.2515    1.0945    1.3880 C   0  0  0  0  0  0  0  0  0  0  0  0
   -0.1639    1.8107    1.2966 C   0  0  0  0  0  0  0  0  0  0  0  0
   -1.9364   -0.6122   -2.8092 C   0  0  0  0  0  0  0  0  0  0  0  0
   -1.8230   -2.1420   -0.9798 C   0  0  0  0  0  0  0  0  0  0  0  0
    0.0390   -0.1360   -4.0656 N   0  0  0  0  0  0  0  0  0  0  0  0
    2.2244    1.1794    2.9132 C   0  0  0  0  0  0  0  0  0  0  0  0
   -0.2027    1.8856    2.8218 C   0  0  0  0  0  0  0  0  0  0  0  0
   -3.3143   -0.5147   -2.7363 N   0  0  0  0  0  0  0  0  0  0  0  0
   -1.3213   -0.0484   -3.8766 C   0  0  0  0  0  0  0  0  0  0  0  0
   -3.1574   -2.1758   -0.8947 C   0  0  0  0  0  0  0  0  0  0  0  0
    1.1772    2.1740    3.4049 C   0  0  0  0  0  0  0  0  0  0  0  0
   -3.8556   -1.2567   -1.8222 C   0  0  0  0  0  0  0  0  0  0  0  0
    2.0363   -2.2193   -1.4502 H   0  0  0  0  0  0  0  0  0  0  0  0
    0.4356   -0.9001    2.0860 H   0  0  0  0  0  0  0  0  0  0  0  0
   -0.6412   -0.7506    0.7330 H   0  0  0  0  0  0  0  0  0  0  0  0
    0.9576    0.9550   -0.3099 H   0  0  0  0  0  0  0  0  0  0  0  0
    1.8860   -0.6931   -3.3109 H   0  0  0  0  0  0  0  0  0  0  0  0
    2.9855    0.3441    1.0742 H   0  0  0  0  0  0  0  0  0  0  0  0
    2.6105    2.0545    0.9936 H   0  0  0  0  0  0  0  0  0  0  0  0
   -1.1618    1.5663    0.9136 H   0  0  0  0  0  0  0  0  0  0  0  0
    0.0832    2.8050    0.9023 H   0  0  0  0  0  0  0  0  0  0  0  0
   -1.2113   -2.7979   -0.3702 H   0  0  0  0  0  0  0  0  0  0  0  0
    0.4612    0.2959   -4.8785 H   0  0  0  0  0  0  0  0  0  0  0  0
    3.2128    1.4811    3.2788 H   0  0  0  0  0  0  0  0  0  0  0  0
    2.0226    0.1906    3.3407 H   0  0  0  0  0  0  0  0  0  0  0  0
   -0.5873    0.9451    3.2331 H   0  0  0  0  0  0  0  0  0  0  0  0
   -0.9008    2.6720    3.1309 H   0  0  0  0  0  0  0  0  0  0  0  0
   -1.8712    0.4799   -4.6472 H   0  0  0  0  0  0  0  0  0  0  0  0
   -3.7181   -2.8150   -0.2310 H   0  0  0  0  0  0  0  0  0  0  0  0
    1.1286    2.1480    4.4993 H   0  0  0  0  0  0  0  0  0  0  0  0
    1.4833    3.1896    3.1246 H   0  0  0  0  0  0  0  0  0  0  0  0
   -4.9519   -1.2288   -1.7066 H   0  0  0  0  0  0  0  0  0  0  0  0
  1  2  2  0  0  0  0
  2  3  1  0  0  0  0
  2  4  1  0  0  0  0
  3  5  1  0  0  0  0
  3 21  1  0  0  0  0
  4  6  1  0  0  0  0
  4 22  1  0  0  0  0
  4 23  1  0  0  0  0
  5  7  1  0  0  0  0
  5  8  2  0  0  0  0
  6  9  1  0  0  0  0
  6 10  1  0  0  0  0
  6 24  1  0  0  0  0
  7 11  1  0  0  0  0
  7 12  1  0  0  0  0
  8 13  1  0  0  0  0
  8 25  1  0  0  0  0
  9 14  1  0  0  0  0
  9 26  1  0  0  0  0
  9 27  1  0  0  0  0
 10 15  1  0  0  0  0
 10 28  1  0  0  0  0
 10 29  1  0  0  0  0
 11 16  1  0  0  0  0
 11 17  2  0  0  0  0
 12 18  2  0  0  0  0
 12 30  1  0  0  0  0
 13 17  1  0  0  0  0
 13 31  1  0  0  0  0
 14 19  1  0  0  0  0
 14 32  1  0  0  0  0
 14 33  1  0  0  0  0
 15 19  1  0  0  0  0
 15 34  1  0  0  0  0
 15 35  1  0  0  0  0
 16 20  2  0  0  0  0
 17 36  1  0  0  0  0
 18 20  1  0  0  0  0
 18 37  1  0  0  0  0
 19 38  1  0  0  0  0
 19 39  1  0  0  0  0
 20 40  1  0  0  0  0
M  END
>  <ID>
12

>  <Stereo Isomer>
1

>  <Energy>
36.764

>  <Error>


$$$$
