
 OpenBabel04122007303D

 42 43  0  0  0  0  0  0  0  0999 V2000
    1.7433   -1.6703   -1.7913 O   0  0  0  0  0  0  0  0  0  0  0  0
    0.6736   -1.1154   -1.5675 C   0  0  0  0  0  0  0  0  0  0  0  0
   -0.0207   -1.1264   -0.3723 N   0  0  0  0  0  0  0  0  0  0  0  0
   -0.0291   -0.3123   -2.6492 C   0  0  0  0  0  0  0  0  0  0  0  0
    0.3694   -1.7630    0.8267 C   0  0  0  0  0  0  0  0  0  0  0  0
    0.0683    1.2033   -2.4143 C   0  0  0  0  0  0  0  0  0  0  0  0
    1.5454   -2.4772    1.0043 C   0  0  0  0  0  0  0  0  0  0  0  0
   -0.4965   -1.6634    1.9279 C   0  0  0  0  0  0  0  0  0  0  0  0
   -0.8544    1.9460   -3.3942 C   0  0  0  0  0  0  0  0  0  0  0  0
    1.5162    1.7030   -2.5571 C   0  0  0  0  0  0  0  0  0  0  0  0
    1.8897   -3.0721    2.1681 N   0  0  0  0  0  0  0  0  0  0  0  0
   -0.2039   -2.2562    3.1675 C   0  0  0  0  0  0  0  0  0  0  0  0
   -0.7548    3.4608   -3.2325 C   0  0  0  0  0  0  0  0  0  0  0  0
    1.6115    3.2191   -2.3991 C   0  0  0  0  0  0  0  0  0  0  0  0
    1.0156   -2.9445    3.1986 C   0  0  0  0  0  0  0  0  0  0  0  0
   -1.0565   -2.1620    4.2618 N   0  0  0  0  0  0  0  0  0  0  0  0
    0.6842    3.9466   -3.3664 C   0  0  0  0  0  0  0  0  0  0  0  0
   -2.3179   -1.4376    4.1857 C   0  0  0  0  0  0  0  0  0  0  0  0
   -0.7103   -2.7947    5.5297 C   0  0  0  0  0  0  0  0  0  0  0  0
   -0.9023   -0.6305   -0.3486 H   0  0  0  0  0  0  0  0  0  0  0  0
   -1.0804   -0.6263   -2.6728 H   0  0  0  0  0  0  0  0  0  0  0  0
    0.4029   -0.5852   -3.6196 H   0  0  0  0  0  0  0  0  0  0  0  0
   -0.2681    1.4312   -1.3939 H   0  0  0  0  0  0  0  0  0  0  0  0
    2.2779   -2.6085    0.2157 H   0  0  0  0  0  0  0  0  0  0  0  0
   -1.4200   -1.1077    1.8063 H   0  0  0  0  0  0  0  0  0  0  0  0
   -0.5964    1.6757   -4.4263 H   0  0  0  0  0  0  0  0  0  0  0  0
   -1.8943    1.6361   -3.2353 H   0  0  0  0  0  0  0  0  0  0  0  0
    1.9135    1.4175   -3.5396 H   0  0  0  0  0  0  0  0  0  0  0  0
    2.1577    1.2293   -1.8051 H   0  0  0  0  0  0  0  0  0  0  0  0
   -1.1484    3.7494   -2.2501 H   0  0  0  0  0  0  0  0  0  0  0  0
   -1.3814    3.9534   -3.9846 H   0  0  0  0  0  0  0  0  0  0  0  0
    1.3541    3.4946   -1.3689 H   0  0  0  0  0  0  0  0  0  0  0  0
    2.6452    3.5421   -2.5667 H   0  0  0  0  0  0  0  0  0  0  0  0
    1.3574   -3.4467    4.0983 H   0  0  0  0  0  0  0  0  0  0  0  0
    0.7287    5.0255   -3.1796 H   0  0  0  0  0  0  0  0  0  0  0  0
    1.0301    3.7855   -4.3948 H   0  0  0  0  0  0  0  0  0  0  0  0
   -2.9755   -1.8792    3.4289 H   0  0  0  0  0  0  0  0  0  0  0  0
   -2.1471   -0.3822    3.9467 H   0  0  0  0  0  0  0  0  0  0  0  0
   -2.8639   -1.4637    5.1350 H   0  0  0  0  0  0  0  0  0  0  0  0
   -0.6084   -3.8788    5.4087 H   0  0  0  0  0  0  0  0  0  0  0  0
   -1.4790   -2.6308    6.2926 H   0  0  0  0  0  0  0  0  0  0  0  0
    0.2245   -2.3842    5.9272 H   0  0  0  0  0  0  0  0  0  0  0  0
  1  2  2  0  0  0  0
  2  3  1  0  0  0  0
  2  4  1  0  0  0  0
  3  5  1  0  0  0  0
  3 20  1  0  0  0  0
  4  6  1  0  0  0  0
  4 21  1  0  0  0  0
  4 22  1  0  0  0  0
  5  7  2  0  0  0  0
  5  8  1  0  0  0  0
  6  9  1  0  0  0  0
  6 10  1  0  0  0  0
  6 23  1  0  0  0  0
  7 11  1  0  0  0  0
  7 24  1  0  0  0  0
  8 12  2  0  0  0  0
  8 25  1  0  0  0  0
  9 13  1  0  0  0  0
  9 26  1  0  0  0  0
  9 27  1  0  0  0  0
 10 14  1  0  0  0  0
 10 28  1  0  0  0  0
 10 29  1  0  0  0  0
 11 15  2  0  0  0  0
 12 16  1  0  0  0  0
 12 15  1  0  0  0  0
 13 17  1  0  0  0  0
 13 30  1  0  0  0  0
 13 31  1  0  0  0  0
 14 17  1  0  0  0  0
 14 32  1  0  0  0  0
 14 33  1  0  0  0  0
 15 34  1  0  0  0  0
 16 18  1  0  0  0  0
 16 19  1  0  0  0  0
 17 35  1  0  0  0  0
 17 36  1  0  0  0  0
 18 37  1  0  0  0  0
 18 38  1  0  0  0  0
 18 39  1  0  0  0  0
 19 40  1  0  0  0  0
 19 41  1  0  0  0  0
 19 42  1  0  0  0  0
M  END
>  <ID>
4

>  <Stereo Isomer>
1

>  <Energy>
42.216

>  <Error>


$$$$
