
 OpenBabel04122007303D

 40 42  0  0  0  0  0  0  0  0999 V2000
   -0.2246    1.3060    0.3303 O   0  0  0  0  0  0  0  0  0  0  0  0
   -0.2087    0.2576   -0.3041 C   0  0  0  0  0  0  0  0  0  0  0  0
    0.8919   -0.3313   -0.8987 N   0  0  0  0  0  0  0  0  0  0  0  0
   -1.4718   -0.5758   -0.4529 C   0  0  0  0  0  0  0  0  0  0  0  0
    2.1845    0.1514   -1.0257 C   0  0  0  0  0  0  0  0  0  0  0  0
   -1.5167   -1.7574    0.5345 C   0  0  0  0  0  0  0  0  0  0  0  0
    2.5648    1.5775   -1.0790 C   0  0  0  0  0  0  0  0  0  0  0  0
    3.1839   -0.7609   -1.1050 C   0  0  0  0  0  0  0  0  0  0  0  0
   -1.6523   -1.3065    2.0001 C   0  0  0  0  0  0  0  0  0  0  0  0
   -2.6549   -2.7292    0.1779 C   0  0  0  0  0  0  0  0  0  0  0  0
    3.9606    1.8323   -0.9957 N   0  0  0  0  0  0  0  0  0  0  0  0
    1.7325    2.6227   -1.3104 C   0  0  0  0  0  0  0  0  0  0  0  0
    4.5368   -0.4980   -1.1489 N   0  0  0  0  0  0  0  0  0  0  0  0
   -3.0341   -0.7446    2.3299 C   0  0  0  0  0  0  0  0  0  0  0  0
   -4.0395   -2.1672    0.4961 C   0  0  0  0  0  0  0  0  0  0  0  0
    4.4244    3.1374   -1.0229 N   0  0  0  0  0  0  0  0  0  0  0  0
    4.8347    0.7627   -1.0693 C   0  0  0  0  0  0  0  0  0  0  0  0
    2.2481    3.9875   -1.3712 C   0  0  0  0  0  0  0  0  0  0  0  0
   -4.1441   -1.7201    1.9509 C   0  0  0  0  0  0  0  0  0  0  0  0
    3.5660    4.1929   -1.2174 C   0  0  0  0  0  0  0  0  0  0  0  0
    0.7738   -1.3083   -1.1396 H   0  0  0  0  0  0  0  0  0  0  0  0
   -1.5076   -0.9491   -1.4846 H   0  0  0  0  0  0  0  0  0  0  0  0
   -2.3335    0.0903   -0.3377 H   0  0  0  0  0  0  0  0  0  0  0  0
   -0.5723   -2.3105    0.4482 H   0  0  0  0  0  0  0  0  0  0  0  0
    2.9577   -1.8238   -1.0801 H   0  0  0  0  0  0  0  0  0  0  0  0
   -1.4657   -2.1724    2.6492 H   0  0  0  0  0  0  0  0  0  0  0  0
   -0.8844   -0.5673    2.2531 H   0  0  0  0  0  0  0  0  0  0  0  0
   -2.6034   -3.0029   -0.8826 H   0  0  0  0  0  0  0  0  0  0  0  0
   -2.5149   -3.6592    0.7443 H   0  0  0  0  0  0  0  0  0  0  0  0
    0.6695    2.5079   -1.4724 H   0  0  0  0  0  0  0  0  0  0  0  0
   -3.1863    0.2075    1.8088 H   0  0  0  0  0  0  0  0  0  0  0  0
   -3.0921   -0.5261    3.4024 H   0  0  0  0  0  0  0  0  0  0  0  0
   -4.7988   -2.9313    0.2939 H   0  0  0  0  0  0  0  0  0  0  0  0
   -4.2612   -1.3218   -0.1656 H   0  0  0  0  0  0  0  0  0  0  0  0
    5.3856    3.3360   -0.7631 H   0  0  0  0  0  0  0  0  0  0  0  0
    5.8946    1.0667   -1.0796 H   0  0  0  0  0  0  0  0  0  0  0  0
    1.5507    4.8035   -1.5174 H   0  0  0  0  0  0  0  0  0  0  0  0
   -4.0912   -2.5998    2.6043 H   0  0  0  0  0  0  0  0  0  0  0  0
   -5.1206   -1.2540    2.1248 H   0  0  0  0  0  0  0  0  0  0  0  0
    4.0188    5.1778   -1.2246 H   0  0  0  0  0  0  0  0  0  0  0  0
  1  2  2  0  0  0  0
  2  3  1  0  0  0  0
  2  4  1  0  0  0  0
  3  5  1  0  0  0  0
  3 21  1  0  0  0  0
  4  6  1  0  0  0  0
  4 22  1  0  0  0  0
  4 23  1  0  0  0  0
  5  7  1  0  0  0  0
  5  8  2  0  0  0  0
  6  9  1  0  0  0  0
  6 10  1  0  0  0  0
  6 24  1  0  0  0  0
  7 11  1  0  0  0  0
  7 12  2  0  0  0  0
  8 13  1  0  0  0  0
  8 25  1  0  0  0  0
  9 14  1  0  0  0  0
  9 26  1  0  0  0  0
  9 27  1  0  0  0  0
 10 15  1  0  0  0  0
 10 28  1  0  0  0  0
 10 29  1  0  0  0  0
 11 16  1  0  0  0  0
 11 17  1  0  0  0  0
 12 18  1  0  0  0  0
 12 30  1  0  0  0  0
 13 17  2  0  0  0  0
 14 19  1  0  0  0  0
 14 31  1  0  0  0  0
 14 32  1  0  0  0  0
 15 19  1  0  0  0  0
 15 33  1  0  0  0  0
 15 34  1  0  0  0  0
 16 20  1  0  0  0  0
 16 35  1  0  0  0  0
 17 36  1  0  0  0  0
 18 20  2  0  0  0  0
 18 37  1  0  0  0  0
 19 38  1  0  0  0  0
 19 39  1  0  0  0  0
 20 40  1  0  0  0  0
M  END
>  <ID>
5

>  <Stereo Isomer>
1

>  <Energy>
66.746

>  <Error>


$$$$
