
 OpenBabel04122007303D

 36 37  0  0  0  0  0  0  0  0999 V2000
   -0.3712    0.4448   -1.1761 O   0  0  0  0  0  0  0  0  0  0  0  0
   -0.5757    0.5655    0.0258 C   0  0  0  0  0  0  0  0  0  0  0  0
   -1.8151    0.6809    0.6357 N   0  0  0  0  0  0  0  0  0  0  0  0
    0.5563    0.6525    1.0430 C   0  0  0  0  0  0  0  0  0  0  0  0
   -3.0783    0.6321    0.0056 C   0  0  0  0  0  0  0  0  0  0  0  0
    1.9297    0.2544    0.4794 C   0  0  0  0  0  0  0  0  0  0  0  0
   -4.2052    1.0007    0.7395 C   0  0  0  0  0  0  0  0  0  0  0  0
   -3.2873    0.2073   -1.3069 C   0  0  0  0  0  0  0  0  0  0  0  0
    3.0434    0.7000    1.4419 C   0  0  0  0  0  0  0  0  0  0  0  0
    2.0158   -1.2623    0.2334 C   0  0  0  0  0  0  0  0  0  0  0  0
   -5.4724    0.9763    0.2686 N   0  0  0  0  0  0  0  0  0  0  0  0
   -4.5741    0.1886   -1.8522 C   0  0  0  0  0  0  0  0  0  0  0  0
    4.4252    0.2825    0.9443 C   0  0  0  0  0  0  0  0  0  0  0  0
    3.3987   -1.6772   -0.2645 C   0  0  0  0  0  0  0  0  0  0  0  0
   -5.6207    0.5637   -1.0120 C   0  0  0  0  0  0  0  0  0  0  0  0
   -4.7902   -0.2763   -3.1391 N   0  0  0  0  0  0  0  0  0  0  0  0
    4.5001   -1.2182    0.6850 C   0  0  0  0  0  0  0  0  0  0  0  0
   -1.8196    0.8543    1.6335 H   0  0  0  0  0  0  0  0  0  0  0  0
    0.5852    1.6945    1.3864 H   0  0  0  0  0  0  0  0  0  0  0  0
    0.3087    0.0286    1.9108 H   0  0  0  0  0  0  0  0  0  0  0  0
    2.0866    0.7687   -0.4785 H   0  0  0  0  0  0  0  0  0  0  0  0
   -4.1244    1.3391    1.7684 H   0  0  0  0  0  0  0  0  0  0  0  0
   -2.4586   -0.1222   -1.9244 H   0  0  0  0  0  0  0  0  0  0  0  0
    2.8715    0.2679    2.4361 H   0  0  0  0  0  0  0  0  0  0  0  0
    3.0201    1.7899    1.5609 H   0  0  0  0  0  0  0  0  0  0  0  0
    1.2664   -1.5747   -0.5023 H   0  0  0  0  0  0  0  0  0  0  0  0
    1.7913   -1.8031    1.1619 H   0  0  0  0  0  0  0  0  0  0  0  0
    5.1837    0.5671    1.6823 H   0  0  0  0  0  0  0  0  0  0  0  0
    4.6593    0.8252    0.0202 H   0  0  0  0  0  0  0  0  0  0  0  0
    3.5715   -1.2490   -1.2595 H   0  0  0  0  0  0  0  0  0  0  0  0
    3.4385   -2.7668   -0.3746 H   0  0  0  0  0  0  0  0  0  0  0  0
   -6.6489    0.5398   -1.3612 H   0  0  0  0  0  0  0  0  0  0  0  0
   -5.7028   -0.1960   -3.5668 H   0  0  0  0  0  0  0  0  0  0  0  0
   -3.9977   -0.4486   -3.7453 H   0  0  0  0  0  0  0  0  0  0  0  0
    4.4106   -1.7578    1.6359 H   0  0  0  0  0  0  0  0  0  0  0  0
    5.4797   -1.4720    0.2647 H   0  0  0  0  0  0  0  0  0  0  0  0
  1  2  2  0  0  0  0
  2  3  1  0  0  0  0
  2  4  1  0  0  0  0
  3  5  1  0  0  0  0
  3 18  1  0  0  0  0
  4  6  1  0  0  0  0
  4 19  1  0  0  0  0
  4 20  1  0  0  0  0
  5  7  2  0  0  0  0
  5  8  1  0  0  0  0
  6  9  1  0  0  0  0
  6 10  1  0  0  0  0
  6 21  1  0  0  0  0
  7 11  1  0  0  0  0
  7 22  1  0  0  0  0
  8 12  2  0  0  0  0
  8 23  1  0  0  0  0
  9 13  1  0  0  0  0
  9 24  1  0  0  0  0
  9 25  1  0  0  0  0
 10 14  1  0  0  0  0
 10 26  1  0  0  0  0
 10 27  1  0  0  0  0
 11 15  2  0  0  0  0
 12 16  1  0  0  0  0
 12 15  1  0  0  0  0
 13 17  1  0  0  0  0
 13 28  1  0  0  0  0
 13 29  1  0  0  0  0
 14 17  1  0  0  0  0
 14 30  1  0  0  0  0
 14 31  1  0  0  0  0
 15 32  1  0  0  0  0
 16 33  1  0  0  0  0
 16 34  1  0  0  0  0
 17 35  1  0  0  0  0
 17 36  1  0  0  0  0
M  END
>  <ID>
2

>  <Stereo Isomer>
1

>  <Energy>
34.734

>  <Error>


$$$$
