
 OpenBabel04122007303D

 37 39  0  0  0  0  0  0  0  0999 V2000
   -1.4047    0.0398    1.0153 O   0  0  0  0  0  0  0  0  0  0  0  0
   -0.9403    0.0425   -0.1180 C   0  0  0  0  0  0  0  0  0  0  0  0
   -1.0410   -0.9965   -1.0256 N   0  0  0  0  0  0  0  0  0  0  0  0
   -0.2205    1.2465   -0.7117 C   0  0  0  0  0  0  0  0  0  0  0  0
   -1.6240   -2.2515   -0.7610 C   0  0  0  0  0  0  0  0  0  0  0  0
    0.2154    2.2829    0.3414 C   0  0  0  0  0  0  0  0  0  0  0  0
   -1.5160   -2.9709    0.4427 C   0  0  0  0  0  0  0  0  0  0  0  0
   -2.3145   -2.9082   -1.7834 C   0  0  0  0  0  0  0  0  0  0  0  0
    0.6240    3.6091   -0.3237 C   0  0  0  0  0  0  0  0  0  0  0  0
    1.3575    1.7696    1.2380 C   0  0  0  0  0  0  0  0  0  0  0  0
   -2.1069   -4.2311    0.5253 C   0  0  0  0  0  0  0  0  0  0  0  0
   -0.9066   -2.8072    1.7110 C   0  0  0  0  0  0  0  0  0  0  0  0
   -2.8884   -4.1330   -1.6942 N   0  0  0  0  0  0  0  0  0  0  0  0
    1.9604    3.5216   -1.0583 C   0  0  0  0  0  0  0  0  0  0  0  0
    2.7021    1.6887    0.5164 C   0  0  0  0  0  0  0  0  0  0  0  0
   -1.8395   -4.6876    1.7866 N   0  0  0  0  0  0  0  0  0  0  0  0
   -2.7983   -4.8086   -0.5279 C   0  0  0  0  0  0  0  0  0  0  0  0
   -1.0880   -3.8549    2.5220 N   0  0  0  0  0  0  0  0  0  0  0  0
    3.0704    3.0132   -0.1442 C   0  0  0  0  0  0  0  0  0  0  0  0
   -0.7808   -0.8077   -1.9859 H   0  0  0  0  0  0  0  0  0  0  0  0
   -0.9250    1.7105   -1.4139 H   0  0  0  0  0  0  0  0  0  0  0  0
    0.6346    0.8947   -1.2989 H   0  0  0  0  0  0  0  0  0  0  0  0
   -0.6474    2.4939    0.9870 H   0  0  0  0  0  0  0  0  0  0  0  0
   -2.4408   -2.4389   -2.7561 H   0  0  0  0  0  0  0  0  0  0  0  0
    0.6997    4.3829    0.4514 H   0  0  0  0  0  0  0  0  0  0  0  0
   -0.1563    3.9430   -1.0177 H   0  0  0  0  0  0  0  0  0  0  0  0
    1.4622    2.4517    2.0921 H   0  0  0  0  0  0  0  0  0  0  0  0
    1.1119    0.7886    1.6594 H   0  0  0  0  0  0  0  0  0  0  0  0
   -0.3312   -1.9656    2.0747 H   0  0  0  0  0  0  0  0  0  0  0  0
    2.2302    4.5114   -1.4440 H   0  0  0  0  0  0  0  0  0  0  0  0
    1.8670    2.8605   -1.9278 H   0  0  0  0  0  0  0  0  0  0  0  0
    2.6748    0.8955   -0.2394 H   0  0  0  0  0  0  0  0  0  0  0  0
    3.4834    1.4096    1.2328 H   0  0  0  0  0  0  0  0  0  0  0  0
   -2.1246   -5.5666    2.2031 H   0  0  0  0  0  0  0  0  0  0  0  0
   -3.2668   -5.7842   -0.4820 H   0  0  0  0  0  0  0  0  0  0  0  0
    3.9964    2.8947   -0.7180 H   0  0  0  0  0  0  0  0  0  0  0  0
    3.2714    3.7616    0.6324 H   0  0  0  0  0  0  0  0  0  0  0  0
  1  2  2  0  0  0  0
  2  3  1  0  0  0  0
  2  4  1  0  0  0  0
  3  5  1  0  0  0  0
  3 20  1  0  0  0  0
  4  6  1  0  0  0  0
  4 21  1  0  0  0  0
  4 22  1  0  0  0  0
  5  7  2  0  0  0  0
  5  8  1  0  0  0  0
  6  9  1  0  0  0  0
  6 10  1  0  0  0  0
  6 23  1  0  0  0  0
  7 11  1  0  0  0  0
  7 12  1  0  0  0  0
  8 13  2  0  0  0  0
  8 24  1  0  0  0  0
  9 14  1  0  0  0  0
  9 25  1  0  0  0  0
  9 26  1  0  0  0  0
 10 15  1  0  0  0  0
 10 27  1  0  0  0  0
 10 28  1  0  0  0  0
 11 16  1  0  0  0  0
 11 17  2  0  0  0  0
 12 18  2  0  0  0  0
 12 29  1  0  0  0  0
 13 17  1  0  0  0  0
 14 19  1  0  0  0  0
 14 30  1  0  0  0  0
 14 31  1  0  0  0  0
 15 19  1  0  0  0  0
 15 32  1  0  0  0  0
 15 33  1  0  0  0  0
 16 18  1  0  0  0  0
 16 34  1  0  0  0  0
 17 35  1  0  0  0  0
 19 36  1  0  0  0  0
 19 37  1  0  0  0  0
M  END
>  <ID>
11

>  <Stereo Isomer>
1

>  <Energy>
28.611

>  <Error>


$$$$
