
 OpenBabel04122007303D

 37 39  0  0  0  0  0  0  0  0999 V2000
    1.7178   -0.2713    0.2412 O   0  0  0  0  0  0  0  0  0  0  0  0
    0.8168    0.4594   -0.1484 C   0  0  0  0  0  0  0  0  0  0  0  0
    0.4376    1.6691    0.4092 N   0  0  0  0  0  0  0  0  0  0  0  0
    0.0125    0.1506   -1.4077 C   0  0  0  0  0  0  0  0  0  0  0  0
    0.8273    2.2638    1.5915 C   0  0  0  0  0  0  0  0  0  0  0  0
    0.1433   -1.3097   -1.8814 C   0  0  0  0  0  0  0  0  0  0  0  0
    1.4485    1.5814    2.6762 C   0  0  0  0  0  0  0  0  0  0  0  0
    0.5727    3.5842    1.7677 C   0  0  0  0  0  0  0  0  0  0  0  0
   -0.5512   -2.3033   -0.9316 C   0  0  0  0  0  0  0  0  0  0  0  0
   -0.4020   -1.4788   -3.3104 C   0  0  0  0  0  0  0  0  0  0  0  0
    1.7893    2.3749    3.7506 N   0  0  0  0  0  0  0  0  0  0  0  0
    1.8004    0.3054    3.0624 C   0  0  0  0  0  0  0  0  0  0  0  0
    0.9023    4.3547    2.8683 N   0  0  0  0  0  0  0  0  0  0  0  0
   -2.0765   -2.2409   -1.0024 C   0  0  0  0  0  0  0  0  0  0  0  0
   -1.9257   -1.3999   -3.3813 C   0  0  0  0  0  0  0  0  0  0  0  0
    2.3823    1.7111    4.7656 N   0  0  0  0  0  0  0  0  0  0  0  0
    1.5161    3.7362    3.8364 C   0  0  0  0  0  0  0  0  0  0  0  0
    2.3857    0.4468    4.3372 C   0  0  0  0  0  0  0  0  0  0  0  0
   -2.5834   -2.3966   -2.4325 C   0  0  0  0  0  0  0  0  0  0  0  0
   -0.1541    2.2396   -0.1838 H   0  0  0  0  0  0  0  0  0  0  0  0
    0.3908    0.8242   -2.1875 H   0  0  0  0  0  0  0  0  0  0  0  0
   -1.0359    0.4164   -1.2335 H   0  0  0  0  0  0  0  0  0  0  0  0
    1.2114   -1.5634   -1.9079 H   0  0  0  0  0  0  0  0  0  0  0  0
    0.0846    4.1540    0.9797 H   0  0  0  0  0  0  0  0  0  0  0  0
   -0.2288   -2.1440    0.1033 H   0  0  0  0  0  0  0  0  0  0  0  0
   -0.2325   -3.3197   -1.1983 H   0  0  0  0  0  0  0  0  0  0  0  0
   -0.0830   -2.4562   -3.6955 H   0  0  0  0  0  0  0  0  0  0  0  0
    0.0369   -0.7266   -3.9766 H   0  0  0  0  0  0  0  0  0  0  0  0
    1.6680   -0.6168    2.5167 H   0  0  0  0  0  0  0  0  0  0  0  0
   -2.4325   -1.2913   -0.5869 H   0  0  0  0  0  0  0  0  0  0  0  0
   -2.5026   -3.0338   -0.3768 H   0  0  0  0  0  0  0  0  0  0  0  0
   -2.2542   -1.6018   -4.4074 H   0  0  0  0  0  0  0  0  0  0  0  0
   -2.2598   -0.3844   -3.1388 H   0  0  0  0  0  0  0  0  0  0  0  0
    1.8229    4.2739    4.7473 H   0  0  0  0  0  0  0  0  0  0  0  0
    2.8053   -0.3247    4.9708 H   0  0  0  0  0  0  0  0  0  0  0  0
   -2.3790   -3.4169   -2.7801 H   0  0  0  0  0  0  0  0  0  0  0  0
   -3.6711   -2.2656   -2.4549 H   0  0  0  0  0  0  0  0  0  0  0  0
  1  2  2  0  0  0  0
  2  3  1  0  0  0  0
  2  4  1  0  0  0  0
  3  5  1  0  0  0  0
  3 20  1  0  0  0  0
  4  6  1  0  0  0  0
  4 21  1  0  0  0  0
  4 22  1  0  0  0  0
  5  7  1  0  0  0  0
  5  8  2  0  0  0  0
  6  9  1  0  0  0  0
  6 10  1  0  0  0  0
  6 23  1  0  0  0  0
  7 11  1  0  0  0  0
  7 12  2  0  0  0  0
  8 13  1  0  0  0  0
  8 24  1  0  0  0  0
  9 14  1  0  0  0  0
  9 25  1  0  0  0  0
  9 26  1  0  0  0  0
 10 15  1  0  0  0  0
 10 27  1  0  0  0  0
 10 28  1  0  0  0  0
 11 16  1  0  0  0  0
 11 17  1  0  0  0  0
 12 18  1  0  0  0  0
 12 29  1  0  0  0  0
 13 17  2  0  0  0  0
 14 19  1  0  0  0  0
 14 30  1  0  0  0  0
 14 31  1  0  0  0  0
 15 19  1  0  0  0  0
 15 32  1  0  0  0  0
 15 33  1  0  0  0  0
 16 18  2  0  0  0  0
 17 34  1  0  0  0  0
 18 35  1  0  0  0  0
 19 36  1  0  0  0  0
 19 37  1  0  0  0  0
M  END
>  <ID>
8

>  <Stereo Isomer>
1

>  <Energy>
60.331

>  <Error>


$$$$
