
 OpenBabel04122007303D

 39 40  0  0  0  0  0  0  0  0999 V2000
    0.4327    0.1480    1.5675 O   0  0  0  0  0  0  0  0  0  0  0  0
    0.2364   -0.2678    0.4326 C   0  0  0  0  0  0  0  0  0  0  0  0
   -0.9979   -0.5710   -0.1183 N   0  0  0  0  0  0  0  0  0  0  0  0
    1.3704   -0.5496   -0.5458 C   0  0  0  0  0  0  0  0  0  0  0  0
   -2.2581   -0.4348    0.5042 C   0  0  0  0  0  0  0  0  0  0  0  0
    2.7305    0.0095   -0.0983 C   0  0  0  0  0  0  0  0  0  0  0  0
   -2.4711    0.0772    1.7784 C   0  0  0  0  0  0  0  0  0  0  0  0
   -3.3875   -0.8413   -0.2192 C   0  0  0  0  0  0  0  0  0  0  0  0
    2.7701    1.5437   -0.2121 C   0  0  0  0  0  0  0  0  0  0  0  0
    3.8584   -0.6140   -0.9375 C   0  0  0  0  0  0  0  0  0  0  0  0
   -3.6949    0.2001    2.3468 N   0  0  0  0  0  0  0  0  0  0  0  0
   -4.6761   -0.7387    0.3188 C   0  0  0  0  0  0  0  0  0  0  0  0
    4.1391    2.1041    0.1678 C   0  0  0  0  0  0  0  0  0  0  0  0
    5.2262   -0.0513   -0.5587 C   0  0  0  0  0  0  0  0  0  0  0  0
   -4.7531   -0.2088    1.6062 C   0  0  0  0  0  0  0  0  0  0  0  0
   -5.7616   -1.1521   -0.4298 N   0  0  0  0  0  0  0  0  0  0  0  0
    5.2551    1.4701   -0.6555 C   0  0  0  0  0  0  0  0  0  0  0  0
   -7.1256   -1.0840    0.0421 C   0  0  0  0  0  0  0  0  0  0  0  0
   -1.0030   -0.9353   -1.0625 H   0  0  0  0  0  0  0  0  0  0  0  0
    1.4328   -1.6412   -0.6420 H   0  0  0  0  0  0  0  0  0  0  0  0
    1.1028   -0.1490   -1.5314 H   0  0  0  0  0  0  0  0  0  0  0  0
    2.9018   -0.2632    0.9519 H   0  0  0  0  0  0  0  0  0  0  0  0
   -1.6627    0.4214    2.4142 H   0  0  0  0  0  0  0  0  0  0  0  0
   -3.2699   -1.2471   -1.2197 H   0  0  0  0  0  0  0  0  0  0  0  0
    2.0106    1.9961    0.4352 H   0  0  0  0  0  0  0  0  0  0  0  0
    2.5306    1.8469   -1.2394 H   0  0  0  0  0  0  0  0  0  0  0  0
    3.8684   -1.7020   -0.8000 H   0  0  0  0  0  0  0  0  0  0  0  0
    3.6745   -0.4302   -2.0039 H   0  0  0  0  0  0  0  0  0  0  0  0
    4.3236    1.9242    1.2341 H   0  0  0  0  0  0  0  0  0  0  0  0
    4.1456    3.1901    0.0216 H   0  0  0  0  0  0  0  0  0  0  0  0
    5.4756   -0.3573    0.4648 H   0  0  0  0  0  0  0  0  0  0  0  0
    5.9939   -0.4768   -1.2149 H   0  0  0  0  0  0  0  0  0  0  0  0
   -5.7068   -0.0881    2.1105 H   0  0  0  0  0  0  0  0  0  0  0  0
   -5.6048   -1.5278   -1.3568 H   0  0  0  0  0  0  0  0  0  0  0  0
    5.1505    1.7711   -1.7052 H   0  0  0  0  0  0  0  0  0  0  0  0
    6.2260    1.8438   -0.3113 H   0  0  0  0  0  0  0  0  0  0  0  0
   -7.7996   -1.4687   -0.7298 H   0  0  0  0  0  0  0  0  0  0  0  0
   -7.4188   -0.0511    0.2556 H   0  0  0  0  0  0  0  0  0  0  0  0
   -7.2640   -1.6951    0.9398 H   0  0  0  0  0  0  0  0  0  0  0  0
  1  2  2  0  0  0  0
  2  3  1  0  0  0  0
  2  4  1  0  0  0  0
  3  5  1  0  0  0  0
  3 19  1  0  0  0  0
  4  6  1  0  0  0  0
  4 20  1  0  0  0  0
  4 21  1  0  0  0  0
  5  7  2  0  0  0  0
  5  8  1  0  0  0  0
  6  9  1  0  0  0  0
  6 10  1  0  0  0  0
  6 22  1  0  0  0  0
  7 11  1  0  0  0  0
  7 23  1  0  0  0  0
  8 12  2  0  0  0  0
  8 24  1  0  0  0  0
  9 13  1  0  0  0  0
  9 25  1  0  0  0  0
  9 26  1  0  0  0  0
 10 14  1  0  0  0  0
 10 27  1  0  0  0  0
 10 28  1  0  0  0  0
 11 15  2  0  0  0  0
 12 16  1  0  0  0  0
 12 15  1  0  0  0  0
 13 17  1  0  0  0  0
 13 29  1  0  0  0  0
 13 30  1  0  0  0  0
 14 17  1  0  0  0  0
 14 31  1  0  0  0  0
 14 32  1  0  0  0  0
 15 33  1  0  0  0  0
 16 18  1  0  0  0  0
 16 34  1  0  0  0  0
 17 35  1  0  0  0  0
 17 36  1  0  0  0  0
 18 37  1  0  0  0  0
 18 38  1  0  0  0  0
 18 39  1  0  0  0  0
M  END
>  <ID>
3

>  <Stereo Isomer>
1

>  <Energy>
34.524

>  <Error>


$$$$
